Materials Studio SDF calculation
TCVAMP81A 

 80  0  0  0  0  0              1 V2000
    0.0001    2.9327    1.4460 Pd  0  0
    8.0460    5.7771    4.2865 Pd  0  0
    2.0342    1.5018    0.0000 Pd  0  0
    2.0342    4.3637    2.8923 Pd  0  0
    2.0074    1.4402    6.0753 Ag  0  0
    4.0686    0.0401    1.4461 Ag  0  0
    4.2021    2.9269    4.3261 Ag  0  0
    2.0346    4.3942    0.0001 Ag  0  0
    2.0346    1.4712    2.8924 Ag  0  0
    2.0166    4.3459    6.0427 Ag  0  0
    4.0690    2.9327    1.4460 Pd  0  0
    4.0365    0.0024    4.3310 Pd  0  0
    6.1031    1.5018    0.0000 Pd  0  0
    6.1031    4.3637    2.8923 Pd  0  0
    8.1375    0.0401    1.4461 Ag  0  0
    8.1071    2.9123    4.3854 Ag  0  0
    6.1035    4.3942    0.0001 Ag  0  0
    6.1035    1.4712    2.8924 Ag  0  0
    0.4895    0.0077    6.1984 O   0  0
    3.4648    2.8827    6.3433 O   0  0
   -8.1377    2.9327    1.4460 Pd  0  0
   -0.0918    5.7771    4.2865 Pd  0  0
   -6.1036    1.5018    0.0000 Pd  0  0
   -6.1036    4.3637    2.8923 Pd  0  0
   -6.1304    1.4402    6.0753 Ag  0  0
   -4.0692    0.0401    1.4461 Ag  0  0
   -3.9357    2.9269    4.3261 Ag  0  0
   -6.1032    4.3942    0.0001 Ag  0  0
   -6.1032    1.4712    2.8924 Ag  0  0
   -6.1212    4.3459    6.0427 Ag  0  0
   -4.0688    2.9327    1.4460 Pd  0  0
   -4.1013    0.0024    4.3310 Pd  0  0
   -2.0347    1.5018    0.0000 Pd  0  0
   -2.0347    4.3637    2.8923 Pd  0  0
   -0.0003    0.0401    1.4461 Ag  0  0
   -0.0307    2.9123    4.3854 Ag  0  0
   -2.0343    4.3942    0.0001 Ag  0  0
   -2.0343    1.4712    2.8924 Ag  0  0
   -7.6483    0.0077    6.1984 O   0  0
   -4.6730    2.8827    6.3433 O   0  0
    0.0000   -2.8522    1.4460 Pd  0  0
    8.0460   -0.0078    4.2865 Pd  0  0
    2.0341   -4.2831    0.0000 Pd  0  0
    2.0342   -1.4212    2.8923 Pd  0  0
    2.0074   -4.3447    6.0753 Ag  0  0
    4.0685   -5.7448    1.4461 Ag  0  0
    4.2021   -2.8580    4.3261 Ag  0  0
    2.0345   -1.3907    0.0001 Ag  0  0
    2.0345   -4.3137    2.8924 Ag  0  0
    2.0166   -1.4390    6.0427 Ag  0  0
    4.0689   -2.8522    1.4460 Pd  0  0
    4.0365   -5.7825    4.3310 Pd  0  0
    6.1030   -4.2831    0.0000 Pd  0  0
    6.1031   -1.4212    2.8923 Pd  0  0
    8.1374   -5.7448    1.4461 Ag  0  0
    8.1071   -2.8726    4.3854 Ag  0  0
    6.1034   -1.3907    0.0001 Ag  0  0
    6.1034   -4.3137    2.8924 Ag  0  0
    0.4895   -5.7772    6.1984 O   0  0
    3.4647   -2.9022    6.3433 O   0  0
   -8.1378   -2.8522    1.4460 Pd  0  0
   -0.0918   -0.0078    4.2865 Pd  0  0
   -6.1037   -4.2831    0.0000 Pd  0  0
   -6.1036   -1.4212    2.8923 Pd  0  0
   -6.1304   -4.3447    6.0753 Ag  0  0
   -4.0693   -5.7448    1.4461 Ag  0  0
   -3.9357   -2.8580    4.3261 Ag  0  0
   -6.1033   -1.3907    0.0001 Ag  0  0
   -6.1033   -4.3137    2.8924 Ag  0  0
   -6.1212   -1.4390    6.0427 Ag  0  0
   -4.0689   -2.8522    1.4460 Pd  0  0
   -4.1013   -5.7825    4.3310 Pd  0  0
   -2.0348   -4.2831    0.0000 Pd  0  0
   -2.0347   -1.4212    2.8923 Pd  0  0
   -0.0004   -5.7448    1.4461 Ag  0  0
   -0.0307   -2.8726    4.3854 Ag  0  0
   -2.0344   -1.3907    0.0001 Ag  0  0
   -2.0344   -4.3137    2.8924 Ag  0  0
   -7.6483   -5.7772    6.1984 O   0  0
   -4.6731   -2.9022    6.3433 O   0  0
M  END

> <DENSITY OF STATES FERMI>
BIOVIA, TYPE=DOUBLE, VERSION=1                                                  
  1706.22476887

> <BAND GAP>
BIOVIA, TYPE=DOUBLE, VERSION=1                                                  
     0.00000000

> <TOTAL ENERGY>
BIOVIA, TYPE=DOUBLE, VERSION=1                                                  
-13222.03472242

> <BINDING ENERGY>
BIOVIA, TYPE=DOUBLE, VERSION=1                                                  
    -8.03680049

> <OPERATION STATUS>
BIOVIA, TYPE=STATUS, VERSION=1                                                  
SUCCESS

$$$$
