Materials Studio SDF calculation
TCVAMP81A 

 88  0  0  0  0  0              1 V2000
    0.0001    2.9327    1.4460 Pd  0  0
    0.0354    5.7476    4.5109 Pd  0  0
    2.0342    1.5018    0.0000 Pd  0  0
    2.0342    4.3637    2.8923 Pd  0  0
    2.1492    1.4345    5.8207 Ag  0  0
    4.0686    0.0401    1.4461 Ag  0  0
    4.1050    2.9066    4.2351 Ag  0  0
    2.0346    4.3942    0.0001 Ag  0  0
    2.0346    1.4712    2.8924 Ag  0  0
    2.1474    4.3385    5.7944 Ag  0  0
    4.0690    2.9327    1.4460 Pd  0  0
    4.0834    5.7811    4.3004 Pd  0  0
    6.1031    1.5018    0.0000 Pd  0  0
    6.1031    4.3637    2.8923 Pd  0  0
    5.6274    1.4855    6.2710 Ag  0  0
    8.1375    0.0401    1.4461 Ag  0  0
    8.0711    2.8873    4.4233 Ag  0  0
    6.1035    4.3942    0.0001 Ag  0  0
    6.1035    1.4712    2.8924 Ag  0  0
    5.6449    4.3749    6.2763 Ag  0  0
    4.0481    2.9348    6.6131 O   0  0
    7.1804    0.0620    6.3176 O   0  0
   -8.1377    2.9327    1.4460 Pd  0  0
   -8.1024    5.7476    4.5109 Pd  0  0
   -6.1036    1.5018    0.0000 Pd  0  0
   -6.1036    4.3637    2.8923 Pd  0  0
   -5.9886    1.4345    5.8207 Ag  0  0
   -4.0692    0.0401    1.4461 Ag  0  0
   -4.0328    2.9066    4.2351 Ag  0  0
   -6.1032    4.3942    0.0001 Ag  0  0
   -6.1032    1.4712    2.8924 Ag  0  0
   -5.9904    4.3385    5.7944 Ag  0  0
   -4.0688    2.9327    1.4460 Pd  0  0
   -4.0544    5.7811    4.3004 Pd  0  0
   -2.0347    1.5018    0.0000 Pd  0  0
   -2.0347    4.3637    2.8923 Pd  0  0
   -2.5104    1.4855    6.2710 Ag  0  0
   -0.0003    0.0401    1.4461 Ag  0  0
   -0.0667    2.8873    4.4233 Ag  0  0
   -2.0343    4.3942    0.0001 Ag  0  0
   -2.0343    1.4712    2.8924 Ag  0  0
   -2.4929    4.3749    6.2763 Ag  0  0
   -4.0897    2.9348    6.6131 O   0  0
   -0.9574    0.0620    6.3176 O   0  0
    0.0000   -2.8522    1.4460 Pd  0  0
    0.0354   -0.0373    4.5109 Pd  0  0
    2.0341   -4.2831    0.0000 Pd  0  0
    2.0342   -1.4212    2.8923 Pd  0  0
    2.1491   -4.3504    5.8207 Ag  0  0
    4.0685   -5.7448    1.4461 Ag  0  0
    4.1049   -2.8783    4.2351 Ag  0  0
    2.0345   -1.3907    0.0001 Ag  0  0
    2.0345   -4.3137    2.8924 Ag  0  0
    2.1474   -1.4464    5.7944 Ag  0  0
    4.0689   -2.8522    1.4460 Pd  0  0
    4.0834   -0.0038    4.3004 Pd  0  0
    6.1030   -4.2831    0.0000 Pd  0  0
    6.1031   -1.4212    2.8923 Pd  0  0
    5.6274   -4.2994    6.2710 Ag  0  0
    8.1374   -5.7448    1.4461 Ag  0  0
    8.0710   -2.8976    4.4233 Ag  0  0
    6.1034   -1.3907    0.0001 Ag  0  0
    6.1034   -4.3137    2.8924 Ag  0  0
    5.6448   -1.4100    6.2763 Ag  0  0
    4.0480   -2.8501    6.6131 O   0  0
    7.1803   -5.7229    6.3176 O   0  0
   -8.1378   -2.8522    1.4460 Pd  0  0
   -8.1024   -0.0373    4.5109 Pd  0  0
   -6.1037   -4.2831    0.0000 Pd  0  0
   -6.1036   -1.4212    2.8923 Pd  0  0
   -5.9887   -4.3504    5.8207 Ag  0  0
   -4.0693   -5.7448    1.4461 Ag  0  0
   -4.0329   -2.8783    4.2351 Ag  0  0
   -6.1033   -1.3907    0.0001 Ag  0  0
   -6.1033   -4.3137    2.8924 Ag  0  0
   -5.9904   -1.4464    5.7944 Ag  0  0
   -4.0689   -2.8522    1.4460 Pd  0  0
   -4.0544   -0.0038    4.3004 Pd  0  0
   -2.0348   -4.2831    0.0000 Pd  0  0
   -2.0347   -1.4212    2.8923 Pd  0  0
   -2.5104   -4.2994    6.2710 Ag  0  0
   -0.0004   -5.7448    1.4461 Ag  0  0
   -0.0668   -2.8976    4.4233 Ag  0  0
   -2.0344   -1.3907    0.0001 Ag  0  0
   -2.0344   -4.3137    2.8924 Ag  0  0
   -2.4930   -1.4100    6.2763 Ag  0  0
   -4.0898   -2.8501    6.6131 O   0  0
   -0.9575   -5.7229    6.3176 O   0  0
M  END

> <DENSITY OF STATES FERMI>
BIOVIA, TYPE=DOUBLE, VERSION=1                                                  
  3184.48440905

> <BAND GAP>
BIOVIA, TYPE=DOUBLE, VERSION=1                                                  
     0.00000000

> <TOTAL ENERGY>
BIOVIA, TYPE=DOUBLE, VERSION=1                                                  
-14700.69526194

> <BINDING ENERGY>
BIOVIA, TYPE=DOUBLE, VERSION=1                                                  
    -8.82529102

> <OPERATION STATUS>
BIOVIA, TYPE=STATUS, VERSION=1                                                  
SUCCESS

$$$$
