Materials Studio SDF calculation
TCVAMP81A 

 92  0  0  0  0  0              1 V2000
    0.0001    2.9327    1.4460 Pd  0  0
    0.0249    0.0163    4.3396 Pd  0  0
    2.0342    1.5018    0.0000 Pd  0  0
    2.0342    4.3637    2.8923 Pd  0  0
    1.9243    1.5086    6.2258 Ag  0  0
    4.0686    0.0401    1.4461 Ag  0  0
    4.0596    2.8996    4.3071 Ag  0  0
    2.0346    4.3942    0.0001 Ag  0  0
    2.0346    1.4712    2.8924 Ag  0  0
    1.9585    4.4087    6.1816 Ag  0  0
    4.0690    2.9327    1.4460 Pd  0  0
    3.9595    5.7667    4.3996 Pd  0  0
    6.1031    1.5018    0.0000 Pd  0  0
    6.1031    4.3637    2.8923 Pd  0  0
    6.1690    1.4901    5.8009 Ag  0  0
    8.1375    0.0401    1.4461 Ag  0  0
    0.0570    2.9303    4.3665 Ag  0  0
    6.1035    4.3942    0.0001 Ag  0  0
    6.1035    1.4712    2.8924 Ag  0  0
    6.1363    4.3010    5.7712 Ag  0  0
    4.6197    0.0170    6.3198 O   0  0
    0.3821    0.0783    6.3808 O   0  0
    3.4167    2.9332    6.4100 O   0  0
   -8.1377    2.9327    1.4460 Pd  0  0
   -8.1129    0.0163    4.3396 Pd  0  0
   -6.1036    1.5018    0.0000 Pd  0  0
   -6.1036    4.3637    2.8923 Pd  0  0
   -6.2135    1.5086    6.2258 Ag  0  0
   -4.0692    0.0401    1.4461 Ag  0  0
   -4.0782    2.8996    4.3071 Ag  0  0
   -6.1032    4.3942    0.0001 Ag  0  0
   -6.1032    1.4712    2.8924 Ag  0  0
   -6.1793    4.4087    6.1816 Ag  0  0
   -4.0688    2.9327    1.4460 Pd  0  0
   -4.1783    5.7667    4.3996 Pd  0  0
   -2.0347    1.5018    0.0000 Pd  0  0
   -2.0347    4.3637    2.8923 Pd  0  0
   -1.9688    1.4901    5.8009 Ag  0  0
   -0.0003    0.0401    1.4461 Ag  0  0
   -8.0808    2.9303    4.3665 Ag  0  0
   -2.0343    4.3942    0.0001 Ag  0  0
   -2.0343    1.4712    2.8924 Ag  0  0
   -2.0015    4.3010    5.7712 Ag  0  0
   -3.5181    0.0170    6.3198 O   0  0
   -7.7557    0.0783    6.3808 O   0  0
   -4.7211    2.9332    6.4100 O   0  0
    0.0000   -2.8522    1.4460 Pd  0  0
    0.0249   -5.7686    4.3396 Pd  0  0
    2.0341   -4.2831    0.0000 Pd  0  0
    2.0342   -1.4212    2.8923 Pd  0  0
    1.9243   -4.2763    6.2258 Ag  0  0
    4.0685   -5.7448    1.4461 Ag  0  0
    4.0596   -2.8853    4.3071 Ag  0  0
    2.0345   -1.3907    0.0001 Ag  0  0
    2.0345   -4.3137    2.8924 Ag  0  0
    1.9584   -1.3762    6.1816 Ag  0  0
    4.0689   -2.8522    1.4460 Pd  0  0
    3.9594   -0.0182    4.3996 Pd  0  0
    6.1030   -4.2831    0.0000 Pd  0  0
    6.1031   -1.4212    2.8923 Pd  0  0
    6.1689   -4.2948    5.8009 Ag  0  0
    8.1374   -5.7448    1.4461 Ag  0  0
    0.0569   -2.8546    4.3665 Ag  0  0
    6.1034   -1.3907    0.0001 Ag  0  0
    6.1034   -4.3137    2.8924 Ag  0  0
    6.1362   -1.4839    5.7712 Ag  0  0
    4.6197   -5.7679    6.3198 O   0  0
    0.3821   -5.7066    6.3808 O   0  0
    3.4167   -2.8517    6.4100 O   0  0
   -8.1378   -2.8522    1.4460 Pd  0  0
   -8.1129   -5.7686    4.3396 Pd  0  0
   -6.1037   -4.2831    0.0000 Pd  0  0
   -6.1036   -1.4212    2.8923 Pd  0  0
   -6.2135   -4.2763    6.2258 Ag  0  0
   -4.0693   -5.7448    1.4461 Ag  0  0
   -4.0782   -2.8853    4.3071 Ag  0  0
   -6.1033   -1.3907    0.0001 Ag  0  0
   -6.1033   -4.3137    2.8924 Ag  0  0
   -6.1794   -1.3762    6.1816 Ag  0  0
   -4.0689   -2.8522    1.4460 Pd  0  0
   -4.1784   -0.0182    4.3996 Pd  0  0
   -2.0348   -4.2831    0.0000 Pd  0  0
   -2.0347   -1.4212    2.8923 Pd  0  0
   -1.9689   -4.2948    5.8009 Ag  0  0
   -0.0004   -5.7448    1.4461 Ag  0  0
   -8.0809   -2.8546    4.3665 Ag  0  0
   -2.0344   -1.3907    0.0001 Ag  0  0
   -2.0344   -4.3137    2.8924 Ag  0  0
   -2.0016   -1.4839    5.7712 Ag  0  0
   -3.5181   -5.7679    6.3198 O   0  0
   -7.7557   -5.7066    6.3808 O   0  0
   -4.7211   -2.8517    6.4100 O   0  0
M  END

> <DENSITY OF STATES FERMI>
BIOVIA, TYPE=DOUBLE, VERSION=1                                                  
  1443.51245048

> <BAND GAP>
BIOVIA, TYPE=DOUBLE, VERSION=1                                                  
     0.00000000

> <TOTAL ENERGY>
BIOVIA, TYPE=DOUBLE, VERSION=1                                                  
-15001.16251020

> <BINDING ENERGY>
BIOVIA, TYPE=DOUBLE, VERSION=1                                                  
    -9.28909311

> <OPERATION STATUS>
BIOVIA, TYPE=STATUS, VERSION=1                                                  
SUCCESS

$$$$
