Materials Studio SDF calculation
TCVAMP81A 

 96  0  0  0  0  0              1 V2000
    0.0001    2.9327    1.4460 Pd  0  0
    8.0775    5.7661    4.3452 Pd  0  0
    2.0342    1.5018    0.0000 Pd  0  0
    2.0342    4.3637    2.8923 Pd  0  0
    2.0588    1.4386    6.1690 Ag  0  0
    4.0686    0.0401    1.4461 Ag  0  0
    4.1380    2.9100    4.3284 Ag  0  0
    2.0346    4.3942    0.0001 Ag  0  0
    2.0346    1.4712    2.8924 Ag  0  0
    2.0563    4.3177    6.1896 Ag  0  0
    4.0690    2.9327    1.4460 Pd  0  0
    3.9997    5.7671    4.3388 Pd  0  0
    6.1031    1.5018    0.0000 Pd  0  0
    6.1031    4.3637    2.8923 Pd  0  0
    6.1254    1.4408    6.1716 Ag  0  0
    8.1375    0.0401    1.4461 Ag  0  0
    0.0617    2.9097    4.3325 Ag  0  0
    6.1035    4.3942    0.0001 Ag  0  0
    6.1035    1.4712    2.8924 Ag  0  0
    6.1204    4.3154    6.2017 Ag  0  0
    4.6341    5.7773    6.2634 O   0  0
    7.5990    2.8746    6.4505 O   0  0
    3.5322    2.8727    6.4469 O   0  0
    0.5657    5.7760    6.2698 O   0  0
   -8.1377    2.9327    1.4460 Pd  0  0
   -0.0603    5.7661    4.3452 Pd  0  0
   -6.1036    1.5018    0.0000 Pd  0  0
   -6.1036    4.3637    2.8923 Pd  0  0
   -6.0790    1.4386    6.1690 Ag  0  0
   -4.0692    0.0401    1.4461 Ag  0  0
   -3.9998    2.9100    4.3284 Ag  0  0
   -6.1032    4.3942    0.0001 Ag  0  0
   -6.1032    1.4712    2.8924 Ag  0  0
   -6.0815    4.3177    6.1896 Ag  0  0
   -4.0688    2.9327    1.4460 Pd  0  0
   -4.1381    5.7671    4.3388 Pd  0  0
   -2.0347    1.5018    0.0000 Pd  0  0
   -2.0347    4.3637    2.8923 Pd  0  0
   -2.0124    1.4408    6.1716 Ag  0  0
   -0.0003    0.0401    1.4461 Ag  0  0
   -8.0761    2.9097    4.3325 Ag  0  0
   -2.0343    4.3942    0.0001 Ag  0  0
   -2.0343    1.4712    2.8924 Ag  0  0
   -2.0174    4.3154    6.2017 Ag  0  0
   -3.5037    5.7773    6.2634 O   0  0
   -0.5388    2.8746    6.4505 O   0  0
   -4.6056    2.8727    6.4469 O   0  0
   -7.5721    5.7760    6.2698 O   0  0
    0.0000   -2.8522    1.4460 Pd  0  0
    8.0775   -0.0188    4.3452 Pd  0  0
    2.0341   -4.2831    0.0000 Pd  0  0
    2.0342   -1.4212    2.8923 Pd  0  0
    2.0587   -4.3463    6.1690 Ag  0  0
    4.0685   -5.7448    1.4461 Ag  0  0
    4.1379   -2.8749    4.3284 Ag  0  0
    2.0345   -1.3907    0.0001 Ag  0  0
    2.0345   -4.3137    2.8924 Ag  0  0
    2.0563   -1.4672    6.1896 Ag  0  0
    4.0689   -2.8522    1.4460 Pd  0  0
    3.9996   -0.0178    4.3388 Pd  0  0
    6.1030   -4.2831    0.0000 Pd  0  0
    6.1031   -1.4212    2.8923 Pd  0  0
    6.1254   -4.3441    6.1716 Ag  0  0
    8.1374   -5.7448    1.4461 Ag  0  0
    0.0616   -2.8752    4.3325 Ag  0  0
    6.1034   -1.3907    0.0001 Ag  0  0
    6.1034   -4.3137    2.8924 Ag  0  0
    6.1203   -1.4695    6.2017 Ag  0  0
    4.6341   -0.0076    6.2634 O   0  0
    7.5989   -2.9103    6.4505 O   0  0
    3.5321   -2.9122    6.4469 O   0  0
    0.5657   -0.0089    6.2698 O   0  0
   -8.1378   -2.8522    1.4460 Pd  0  0
   -0.0603   -0.0188    4.3452 Pd  0  0
   -6.1037   -4.2831    0.0000 Pd  0  0
   -6.1036   -1.4212    2.8923 Pd  0  0
   -6.0791   -4.3463    6.1690 Ag  0  0
   -4.0693   -5.7448    1.4461 Ag  0  0
   -3.9999   -2.8749    4.3284 Ag  0  0
   -6.1033   -1.3907    0.0001 Ag  0  0
   -6.1033   -4.3137    2.8924 Ag  0  0
   -6.0815   -1.4672    6.1896 Ag  0  0
   -4.0689   -2.8522    1.4460 Pd  0  0
   -4.1382   -0.0178    4.3388 Pd  0  0
   -2.0348   -4.2831    0.0000 Pd  0  0
   -2.0347   -1.4212    2.8923 Pd  0  0
   -2.0124   -4.3441    6.1716 Ag  0  0
   -0.0004   -5.7448    1.4461 Ag  0  0
   -8.0762   -2.8752    4.3325 Ag  0  0
   -2.0344   -1.3907    0.0001 Ag  0  0
   -2.0344   -4.3137    2.8924 Ag  0  0
   -2.0175   -1.4695    6.2017 Ag  0  0
   -3.5037   -0.0076    6.2634 O   0  0
   -0.5389   -2.9103    6.4505 O   0  0
   -4.6057   -2.9122    6.4469 O   0  0
   -7.5721   -0.0089    6.2698 O   0  0
M  END

> <DENSITY OF STATES FERMI>
BIOVIA, TYPE=DOUBLE, VERSION=1                                                  
  2158.29663495

> <BAND GAP>
BIOVIA, TYPE=DOUBLE, VERSION=1                                                  
     0.00000000

> <TOTAL ENERGY>
BIOVIA, TYPE=DOUBLE, VERSION=1                                                  
-15301.68218352

> <BINDING ENERGY>
BIOVIA, TYPE=DOUBLE, VERSION=1                                                  
    -9.80532027

> <OPERATION STATUS>
BIOVIA, TYPE=STATUS, VERSION=1                                                  
SUCCESS

$$$$
