Materials Studio SDF calculation
TCVAMP81A 

 24  0  0  0  0  0              1 V2000
    2.9133   -2.8827    2.0345 Pd  0  0
   -0.0097    0.0095    2.0345 Pd  0  0
   -2.8407   -2.8487    6.1506 Pd  0  0
   -0.0995   -0.0853    6.2670 Pd  0  0
    1.4210    1.4554    0.0002 Pd  0  0
   -1.4409   -1.4369    0.0002 Pd  0  0
    1.4210    1.4555    4.0691 Pd  0  0
   -1.4409   -1.4368    4.0691 Pd  0  0
    1.5364    1.5728    9.3660 Ag  0  0
   -1.2522   -1.2359    9.5588 Ag  0  0
    1.4516   -1.4369    0.0000 Ag  0  0
   -1.4714    1.4553    0.0000 Ag  0  0
    1.4516   -1.4369    4.0689 Ag  0  0
   -1.4714    1.4554    4.0689 Ag  0  0
    1.6901   -1.4051    8.8691 Ag  0  0
   -1.4400    1.7014    8.8935 Ag  0  0
    2.8829    0.0095    2.0346 Ag  0  0
    0.0210   -2.8828    2.0346 Ag  0  0
   -2.8882   -0.0211    6.3749 Ag  0  0
   -0.0134   -2.8747    6.3794 Ag  0  0
   -2.7502   -2.7537   10.0179 O   0  0
   -1.4985   -1.4962    7.0594 O   0  0
    1.3853    1.4180    6.1600 O   0  0
    0.1377    0.1678    8.6020 O   0  0
M  END

> <DENSITY OF STATES FERMI>
BIOVIA, TYPE=DOUBLE, VERSION=1                                                  
   190.29138984

> <BAND GAP>
BIOVIA, TYPE=DOUBLE, VERSION=1                                                  
     0.00000000

> <TOTAL ENERGY>
BIOVIA, TYPE=DOUBLE, VERSION=1                                                  
 -3825.49862197

> <BINDING ENERGY>
BIOVIA, TYPE=DOUBLE, VERSION=1                                                  
    -2.52940616

> <OPERATION STATUS>
BIOVIA, TYPE=STATUS, VERSION=1                                                  
SUCCESS

$$$$
