Materials Studio SDF calculation
TCVAMP81A 

 88  0  0  0  0  0              1 V2000
    2.8522    2.9018    2.0345 Pd  0  0
    5.7752    0.0095    2.0345 Pd  0  0
    2.8520    2.9014    6.0924 Pd  0  0
    5.7750    0.0092    6.0925 Pd  0  0
    1.4210    1.4554    0.0002 Pd  0  0
    4.2829    4.3477    0.0002 Pd  0  0
    1.4210    1.4555    4.0691 Pd  0  0
    4.2830    4.3478    4.0691 Pd  0  0
    1.4206    1.4544    8.2878 Ag  0  0
    4.2827    4.3468    8.2844 Ag  0  0
    1.3905    4.3476    0.0000 Ag  0  0
    4.3135    1.4553    0.0000 Ag  0  0
    1.3905    4.3477    4.0689 Ag  0  0
    4.3135    1.4554    4.0689 Ag  0  0
    1.3904    4.3468    8.2646 Ag  0  0
    4.3133    1.4547    8.2671 Ag  0  0
    2.8829    0.0095    2.0346 Ag  0  0
    5.7448    2.9018    2.0346 Ag  0  0
    2.8825    0.0098    6.1172 Ag  0  0
    5.7445    2.9010    6.1171 Ag  0  0
    5.7741    0.0090    9.0820 O   0  0
    2.8515    2.9025    9.0864 O   0  0
   -2.9327    2.9018    2.0345 Pd  0  0
   -0.0097    0.0095    2.0345 Pd  0  0
   -2.9329    2.9014    6.0924 Pd  0  0
   -0.0099    0.0092    6.0925 Pd  0  0
   -4.3639    1.4554    0.0002 Pd  0  0
   -1.5020    4.3477    0.0002 Pd  0  0
   -4.3639    1.4555    4.0691 Pd  0  0
   -1.5019    4.3478    4.0691 Pd  0  0
   -4.3643    1.4544    8.2878 Ag  0  0
   -1.5022    4.3468    8.2844 Ag  0  0
   -4.3944    4.3476    0.0000 Ag  0  0
   -1.4714    1.4553    0.0000 Ag  0  0
   -4.3944    4.3477    4.0689 Ag  0  0
   -1.4714    1.4554    4.0689 Ag  0  0
   -4.3945    4.3468    8.2646 Ag  0  0
   -1.4716    1.4547    8.2671 Ag  0  0
   -2.9020    0.0095    2.0346 Ag  0  0
   -0.0401    2.9018    2.0346 Ag  0  0
   -2.9024    0.0098    6.1172 Ag  0  0
   -0.0404    2.9010    6.1171 Ag  0  0
   -0.0108    0.0090    9.0820 O   0  0
   -2.9334    2.9025    9.0864 O   0  0
    2.9133   -2.8827    2.0345 Pd  0  0
    5.8363   -5.7750    2.0345 Pd  0  0
    2.9131   -2.8832    6.0924 Pd  0  0
    5.8361   -5.7754    6.0925 Pd  0  0
    1.4821   -4.3292    0.0002 Pd  0  0
    4.3440   -1.4369    0.0002 Pd  0  0
    1.4821   -4.3291    4.0691 Pd  0  0
    4.3440   -1.4368    4.0691 Pd  0  0
    1.4817   -4.3301    8.2878 Ag  0  0
    4.3438   -1.4377    8.2844 Ag  0  0
    1.4516   -1.4369    0.0000 Ag  0  0
    4.3746   -4.3292    0.0000 Ag  0  0
    1.4516   -1.4369    4.0689 Ag  0  0
    4.3746   -4.3292    4.0689 Ag  0  0
    1.4515   -1.4378    8.2646 Ag  0  0
    4.3744   -4.3299    8.2671 Ag  0  0
    2.9440   -5.7751    2.0346 Ag  0  0
    5.8059   -2.8828    2.0346 Ag  0  0
    2.9436   -5.7748    6.1172 Ag  0  0
    5.8055   -2.8836    6.1171 Ag  0  0
    5.8352   -5.7755    9.0820 O   0  0
    2.9126   -2.8821    9.0864 O   0  0
   -2.8716   -2.8827    2.0345 Pd  0  0
    0.0514   -5.7750    2.0345 Pd  0  0
   -2.8718   -2.8832    6.0924 Pd  0  0
    0.0512   -5.7754    6.0925 Pd  0  0
   -4.3028   -4.3292    0.0002 Pd  0  0
   -1.4409   -1.4369    0.0002 Pd  0  0
   -4.3028   -4.3291    4.0691 Pd  0  0
   -1.4409   -1.4368    4.0691 Pd  0  0
   -4.3032   -4.3301    8.2878 Ag  0  0
   -1.4411   -1.4377    8.2844 Ag  0  0
   -4.3333   -1.4369    0.0000 Ag  0  0
   -1.4103   -4.3292    0.0000 Ag  0  0
   -4.3333   -1.4369    4.0689 Ag  0  0
   -1.4103   -4.3292    4.0689 Ag  0  0
   -4.3334   -1.4378    8.2646 Ag  0  0
   -1.4105   -4.3299    8.2671 Ag  0  0
   -2.8409   -5.7751    2.0346 Ag  0  0
    0.0210   -2.8828    2.0346 Ag  0  0
   -2.8413   -5.7748    6.1172 Ag  0  0
    0.0206   -2.8836    6.1171 Ag  0  0
    0.0503   -5.7755    9.0820 O   0  0
   -2.8723   -2.8821    9.0864 O   0  0
M  END

> <DENSITY OF STATES FERMI>
BIOVIA, TYPE=DOUBLE, VERSION=1                                                  
   664.38687298

> <BAND GAP>
BIOVIA, TYPE=DOUBLE, VERSION=1                                                  
     0.00000000

> <TOTAL ENERGY>
BIOVIA, TYPE=DOUBLE, VERSION=1                                                  
-14701.02093092

> <BINDING ENERGY>
BIOVIA, TYPE=DOUBLE, VERSION=1                                                  
    -9.15095999

> <OPERATION STATUS>
BIOVIA, TYPE=STATUS, VERSION=1                                                  
SUCCESS

$$$$
