Materials Studio SDF calculation
TCVAMP81A 

 88  0  0  0  0  0              1 V2000
    2.8522    2.9018    2.0345 Pd  0  0
    5.7752    0.0095    2.0345 Pd  0  0
    2.8877    2.9557    6.0870 Pd  0  0
    5.7657   -0.0166    6.1529 Pd  0  0
    1.4210    1.4554    0.0002 Pd  0  0
    4.2829    4.3477    0.0002 Pd  0  0
    1.4210    1.4555    4.0691 Pd  0  0
    4.2830    4.3478    4.0691 Pd  0  0
   -5.5865    1.2832    8.8441 Ag  0  0
    4.2698    4.3718    8.1811 Ag  0  0
    1.3905    4.3476    0.0000 Ag  0  0
    4.3135    1.4553    0.0000 Ag  0  0
    1.3905    4.3477    4.0689 Ag  0  0
    4.3135    1.4554    4.0689 Ag  0  0
    1.3629    4.4912    8.7861 Ag  0  0
    3.1179    1.5046    8.8914 Ag  0  0
    2.8829    0.0095    2.0346 Ag  0  0
    5.7448    2.9018    2.0346 Ag  0  0
    2.9010    0.0587    6.1804 Ag  0  0
    5.7106    2.8797    6.1323 Ag  0  0
    4.4927    0.4139   10.0379 O   0  0
    1.5991    2.5922    7.8843 O   0  0
   -2.9327    2.9018    2.0345 Pd  0  0
   -0.0097    0.0095    2.0345 Pd  0  0
   -2.8972    2.9557    6.0870 Pd  0  0
   -0.0192   -0.0166    6.1529 Pd  0  0
   -4.3639    1.4554    0.0002 Pd  0  0
   -1.5020    4.3477    0.0002 Pd  0  0
   -4.3639    1.4555    4.0691 Pd  0  0
   -1.5019    4.3478    4.0691 Pd  0  0
    0.1984    1.2831    8.8441 Ag  0  0
   -1.5151    4.3718    8.1811 Ag  0  0
   -4.3944    4.3476    0.0000 Ag  0  0
   -1.4714    1.4553    0.0000 Ag  0  0
   -4.3944    4.3477    4.0689 Ag  0  0
   -1.4714    1.4554    4.0689 Ag  0  0
   -4.4220    4.4912    8.7860 Ag  0  0
   -2.6670    1.5046    8.8914 Ag  0  0
   -2.9020    0.0095    2.0346 Ag  0  0
   -0.0401    2.9018    2.0346 Ag  0  0
   -2.8839    0.0588    6.1804 Ag  0  0
   -0.0743    2.8797    6.1323 Ag  0  0
   -1.2921    0.4138   10.0379 O   0  0
   -4.1857    2.5922    7.8843 O   0  0
    2.9133   -2.8827    2.0345 Pd  0  0
    5.8363   -5.7750    2.0345 Pd  0  0
    2.8776   -2.8536    6.0914 Pd  0  0
   -5.8407    5.7618    6.1529 Pd  0  0
    1.4821   -4.3292    0.0002 Pd  0  0
    4.3440   -1.4369    0.0002 Pd  0  0
    1.4821   -4.3291    4.0691 Pd  0  0
    4.3440   -1.4368    4.0691 Pd  0  0
    5.6069   -4.4606    8.8285 Ag  0  0
    4.3683   -1.2716    8.8350 Ag  0  0
    1.4516   -1.4369    0.0000 Ag  0  0
    4.3746   -4.3292    0.0000 Ag  0  0
    1.4516   -1.4369    4.0689 Ag  0  0
    4.3746   -4.3292    4.0689 Ag  0  0
    1.4608   -1.4141    8.1783 Ag  0  0
    2.6731   -4.2547    8.8505 Ag  0  0
    2.9440   -5.7751    2.0346 Ag  0  0
    5.8059   -2.8828    2.0346 Ag  0  0
    2.9301   -5.7380    6.1770 Ag  0  0
   -5.7300   -2.9129    6.1210 Ag  0  0
    4.1989   -3.1422    7.8847 O   0  0
    1.3121   -5.3839    9.9770 O   0  0
   -2.8716   -2.8827    2.0345 Pd  0  0
    0.0514   -5.7750    2.0345 Pd  0  0
   -2.9073   -2.8536    6.0914 Pd  0  0
   -0.0558    5.7618    6.1529 Pd  0  0
   -4.3028   -4.3292    0.0002 Pd  0  0
   -1.4409   -1.4369    0.0002 Pd  0  0
   -4.3028   -4.3291    4.0691 Pd  0  0
   -1.4409   -1.4368    4.0691 Pd  0  0
   -0.1780   -4.4606    8.8285 Ag  0  0
   -1.4166   -1.2716    8.8349 Ag  0  0
   -4.3333   -1.4369    0.0000 Ag  0  0
   -1.4103   -4.3292    0.0000 Ag  0  0
   -4.3333   -1.4369    4.0689 Ag  0  0
   -1.4103   -4.3292    4.0689 Ag  0  0
   -4.3241   -1.4141    8.1783 Ag  0  0
   -3.1118   -4.2547    8.8506 Ag  0  0
   -2.8409   -5.7751    2.0346 Ag  0  0
    0.0210   -2.8828    2.0346 Ag  0  0
   -2.8548   -5.7380    6.1770 Ag  0  0
    0.0549   -2.9129    6.1210 Ag  0  0
   -1.5860   -3.1423    7.8847 O   0  0
   -4.4729   -5.3840    9.9771 O   0  0
M  END

> <DENSITY OF STATES FERMI>
BIOVIA, TYPE=DOUBLE, VERSION=1                                                  
  1249.36735552

> <BAND GAP>
BIOVIA, TYPE=DOUBLE, VERSION=1                                                  
     0.00000000

> <TOTAL ENERGY>
BIOVIA, TYPE=DOUBLE, VERSION=1                                                  
-14700.99898655

> <BINDING ENERGY>
BIOVIA, TYPE=DOUBLE, VERSION=1                                                  
    -9.12901562

> <OPERATION STATUS>
BIOVIA, TYPE=STATUS, VERSION=1                                                  
SUCCESS

$$$$
