Materials Studio SDF calculation
TCVAMP81A 

 56  0  0  0  0  0              1 V2000
    1.3114    2.7412    0.0000 Pd  0  0
    3.1928   -2.7292    0.0000 Pd  0  0
   -4.1786    0.9178    0.0000 Pd  0  0
   -2.2972   -4.5526    0.0000 Pd  0  0
   -0.4929   -0.9057    0.0000 Pd  0  0
    1.3115    2.7413    4.0689 Pd  0  0
    3.1928   -2.7291    4.0689 Pd  0  0
   -4.1786    0.9178    4.0689 Pd  0  0
   -2.2972   -4.5526    4.0689 Pd  0  0
   -0.4929   -0.9056    4.0689 Pd  0  0
    0.4091    0.9175    2.0346 Pd  0  0
    2.2905   -4.5529    2.0346 Pd  0  0
    4.0948   -0.9059    2.0346 Pd  0  0
   -3.2766    2.7410    2.0346 Pd  0  0
   -1.3952   -2.7294    2.0346 Pd  0  0
    0.4148    0.9527    6.0801 Pd  0  0
    2.2192    4.5555    6.0686 Pd  0  0
    4.0925   -0.9218    6.0780 Pd  0  0
   -3.3041    2.7582    6.0960 Pd  0  0
   -1.3681   -2.7290    6.1181 Pd  0  0
    1.3499   -1.8178    2.0344 Ag  0  0
    3.1542    1.8292    2.0344 Ag  0  0
   -4.1401   -3.6412    2.0344 Ag  0  0
   -2.3358    0.0057    2.0344 Ag  0  0
   -0.5315    3.6527    2.0344 Ag  0  0
    1.3970   -1.7706    6.0957 Ag  0  0
    3.1167    1.8303    6.1057 Ag  0  0
   -4.1115   -3.6165    6.1581 Ag  0  0
   -2.3482    0.0233    6.0870 Ag  0  0
   -0.5674    3.6399    6.1499 Ag  0  0
    0.4479   -3.6409    0.0001 Ag  0  0
    2.2522    0.0060    0.0001 Ag  0  0
    4.0565    3.6530    0.0001 Ag  0  0
   -3.2378   -1.8174    0.0001 Ag  0  0
   -1.4335    1.8295    0.0001 Ag  0  0
    0.4479   -3.6409    4.0690 Ag  0  0
    2.2522    0.0061    4.0690 Ag  0  0
    4.0566    3.6530    4.0690 Ag  0  0
   -3.2378   -1.8174    4.0690 Ag  0  0
   -1.4335    1.8295    4.0690 Ag  0  0
   -1.2836   -4.0687    8.6343 Ag  0  0
   -2.2885    1.7141    8.8525 Ag  0  0
   -4.5847    3.9289    8.7373 Ag  0  0
   -3.5060   -1.8473    8.4838 Ag  0  0
    2.2686   -2.8601    8.6762 Ag  0  0
    1.0696    2.6824    8.4129 Ag  0  0
    3.4270    0.4271    8.5628 Ag  0  0
   -0.0212   -0.5649    8.7273 Ag  0  0
   -2.6319    3.6726    9.5229 O   0  0
    4.3350   -3.2132    9.2899 O   0  0
    1.9561   -0.8626    9.2972 O   0  0
   -4.2781    1.9168    8.0284 O   0  0
    2.5382    4.1836    8.1124 O   0  0
   -0.2613    1.4172    9.4011 O   0  0
    0.0121   -2.5377    7.9112 O   0  0
   -2.0647   -0.3116    8.3038 O   0  0
M  END

> <DENSITY OF STATES FERMI>
BIOVIA, TYPE=DOUBLE, VERSION=1                                                  
   799.94202655

> <BAND GAP>
BIOVIA, TYPE=DOUBLE, VERSION=1                                                  
     0.00000000

> <TOTAL ENERGY>
BIOVIA, TYPE=DOUBLE, VERSION=1                                                  
 -9043.85185354

> <BINDING ENERGY>
BIOVIA, TYPE=DOUBLE, VERSION=1                                                  
    -5.89854934

> <OPERATION STATUS>
BIOVIA, TYPE=STATUS, VERSION=1                                                  
SUCCESS

$$$$
