Materials Studio SDF calculation
TCVAMP81A 

 63  0  0  0  0  0              1 V2000
    2.0424    2.0344    0.0000 Pd  0  0
    2.0424    6.1033    0.0000 Pd  0  0
    2.0424   -2.0345    0.0000 Pd  0  0
   -2.0697    2.0344    0.0000 Pd  0  0
   -2.0697    6.1033    0.0000 Pd  0  0
   -2.0697   -2.0345    0.0000 Pd  0  0
    2.0424    2.0345    4.0689 Pd  0  0
    2.0424   -6.1033    4.0689 Pd  0  0
    2.0424   -2.0344    4.0689 Pd  0  0
   -2.0697    2.0345    4.0689 Pd  0  0
   -2.0697   -6.1033    4.0689 Pd  0  0
   -2.0697   -2.0344    4.0689 Pd  0  0
    2.2798    1.9158    8.2925 Ag  0  0
    2.3359   -6.0999    8.2604 Ag  0  0
    2.3054   -1.9084    8.3131 Ag  0  0
   -2.3609    2.0308    8.2539 Ag  0  0
   -2.3096   -5.9772    8.3079 Ag  0  0
   -2.3319   -2.1693    8.3265 Ag  0  0
    2.0424    4.0685    2.0346 Pd  0  0
    2.0424   -4.0693    2.0346 Pd  0  0
    2.0424   -0.0004    2.0346 Pd  0  0
   -2.0697    4.0685    2.0346 Pd  0  0
   -2.0697   -4.0693    2.0346 Pd  0  0
   -2.0697   -0.0004    2.0346 Pd  0  0
    2.0665    4.0502    6.1392 Pd  0  0
    2.0588   -4.0396    6.1339 Pd  0  0
    2.0318   -0.0095    6.0720 Pd  0  0
   -2.0946    4.0917    6.1384 Pd  0  0
   -2.0560   -4.0577    6.0786 Pd  0  0
   -2.0855   -0.0317    6.1277 Pd  0  0
    4.0986    2.0341    2.0344 Ag  0  0
    4.0986    6.1030    2.0344 Ag  0  0
    4.0986   -2.0348    2.0344 Ag  0  0
   -0.0135    2.0341    2.0344 Ag  0  0
   -0.0135    6.1030    2.0344 Ag  0  0
   -0.0135   -2.0348    2.0344 Ag  0  0
    4.0828    2.0184    6.0555 Ag  0  0
   -4.1084   -6.0840    6.0586 Ag  0  0
    4.1015   -2.0367    6.0855 Ag  0  0
   -0.0176    2.0153    6.1600 Ag  0  0
   -0.0100   -6.0826    6.1593 Ag  0  0
   -0.0138   -2.0350    6.1842 Ag  0  0
    4.0986   -0.0000    0.0002 Ag  0  0
    4.0986    4.0689    0.0002 Ag  0  0
    4.0986   -4.0689    0.0002 Ag  0  0
   -0.0135   -0.0000    0.0002 Ag  0  0
   -0.0135    4.0689    0.0002 Ag  0  0
   -0.0135   -4.0689    0.0002 Ag  0  0
    4.0986    0.0001    4.0691 Ag  0  0
    4.0986    4.0690    4.0691 Ag  0  0
    4.0986   -4.0688    4.0691 Ag  0  0
   -0.0135    0.0001    4.0691 Ag  0  0
   -0.0135    4.0690    4.0691 Ag  0  0
   -0.0135   -4.0688    4.0691 Ag  0  0
   -0.0263   -0.0176    8.4499 Ag  0  0
   -0.0199    4.0722    8.3332 Ag  0  0
    0.0024   -4.0543    8.4551 Ag  0  0
    2.1256    4.0249    8.3642 O   0  0
    2.1586   -4.0153    8.3049 O   0  0
   -2.1661    4.1205    8.3568 O   0  0
   -2.0306   -4.0751    9.0939 O   0  0
    2.0118    0.0067    9.0660 O   0  0
   -2.1816   -0.0604    8.2947 O   0  0
M  END

> <DENSITY OF STATES FERMI>
BIOVIA, TYPE=DOUBLE, VERSION=1                                                  
   694.89590324

> <BAND GAP>
BIOVIA, TYPE=DOUBLE, VERSION=1                                                  
     0.00000000

> <TOTAL ENERGY>
BIOVIA, TYPE=DOUBLE, VERSION=1                                                  
-10471.29303363

> <BINDING ENERGY>
BIOVIA, TYPE=DOUBLE, VERSION=1                                                  
    -6.59257380

> <OPERATION STATUS>
BIOVIA, TYPE=STATUS, VERSION=1                                                  
SUCCESS

$$$$
