Materials Studio SDF calculation
TCVAMP81A 

 20  0  0  0  0  0              1 V2000
    2.9133   -2.8827    2.0345 Pd  0  0
   -0.0097    0.0095    2.0345 Pd  0  0
    2.9131   -2.8830    6.1308 Pd  0  0
   -0.0099    0.0093    6.1308 Pd  0  0
    1.4210    1.4554    0.0002 Pd  0  0
   -1.4409   -1.4369    0.0002 Pd  0  0
    1.4210    1.4555    4.0691 Pd  0  0
   -1.4409   -1.4368    4.0691 Pd  0  0
    1.4211    1.4554    8.2055 Ag  0  0
   -1.4408   -1.4369    8.2055 Ag  0  0
    1.4516   -1.4369    0.0000 Ag  0  0
   -1.4714    1.4553    0.0000 Ag  0  0
    1.4516   -1.4369    4.0689 Ag  0  0
   -1.4714    1.4554    4.0689 Ag  0  0
    1.4516   -1.4369    8.1932 Ag  0  0
   -1.4714    1.4554    8.1930 Ag  0  0
    2.8829    0.0095    2.0346 Ag  0  0
    0.0210   -2.8828    2.0346 Ag  0  0
    2.8825    0.0093    6.1139 Ag  0  0
    0.0206   -2.8830    6.1139 Ag  0  0
M  END

> <DENSITY OF STATES FERMI>
BIOVIA, TYPE=DOUBLE, VERSION=1                                                  
   315.77646455

> <BAND GAP>
BIOVIA, TYPE=DOUBLE, VERSION=1                                                  
     0.00000000

> <TOTAL ENERGY>
BIOVIA, TYPE=DOUBLE, VERSION=1                                                  
 -3524.96780859

> <BINDING ENERGY>
BIOVIA, TYPE=DOUBLE, VERSION=1                                                  
    -2.00203894

> <OPERATION STATUS>
BIOVIA, TYPE=STATUS, VERSION=1                                                  
SUCCESS

$$$$
